Output:

 ===================================================
  XFOIL Version 6.99
  Copyright (C) 2000   Mark Drela, Harold Youngren

  This software comes with ABSOLUTELY NO WARRANTY,
    subject to the GNU General Public License.

  Caveat computor
 ===================================================

 File  xfoil.def  not found

 Plain airfoil file

Enter airfoil name   s>  
 Number of input coordinate points: 143
 Counterclockwise ordering
 Max thickness =     0.106221  at x =   0.272
 Max camber    =     0.020723  at x =   0.373

  LE  x,y  =  -0.00014  -0.00332  |   Chord =   1.00015
  TE  x,y  =   1.00000   0.00000  |

 Current airfoil nodes set from buffer airfoil nodes ( 143 )

   QUIT    Exit program

  .OPER    Direct operating point(s)
  .MDES    Complex mapping design routine
  .QDES    Surface speed design routine
  .GDES    Geometry design routine

   SAVE f  Write airfoil to labeled coordinate file
   PSAV f  Write airfoil to plain coordinate file
   ISAV f  Write airfoil to ISES coordinate file
   MSAV f  Write airfoil to MSES coordinate file
   REVE    Reverse written-airfoil node ordering

   LOAD f  Read buffer airfoil from coordinate file
   NACA i  Set NACA 4,5-digit airfoil and buffer airfoil
   INTE    Set buffer airfoil by interpolating two airfoils
   NORM    Buffer airfoil normalization toggle
   XYCM rr Change CM reference location, currently  0.25000 0.00000

   BEND    Display structural properties of current airfoil

   PCOP    Set current-airfoil panel nodes directly from buffer airfoil points
   PANE    Set current-airfoil panel nodes ( 160 ) based on curvature
  .PPAR    Show/change paneling

  .PLOP    Plotting options

   WDEF f  Write  current-settings file
   RDEF f  Reread current-settings file
   NAME s  Specify new airfoil name
   NINC    Increment name version number

   Z       Zoom    | (available in all menus)
   U       Unzoom  | 

 XFOIL   c>  
.OPERi   c>  
.OPERi   c>  
Enter Reynolds number   r>  
 M  =    0.0000
 Re =   1000000

.OPERv   c>   Calculating unit vorticity distributions ...
 Calculating wake trajectory ...
 Calculating source influence matrix ...

 Solving BL system ...

 Initializing BL ...
    side            1  ...
 MRCHUE: Inverse mode at  69     Hk =   4.735
 MRCHUE: Inverse mode at  70     Hk =   2.500
 MRCHUE: Inverse mode at  78     Hk =   2.500
    side            2  ...
 MRCHUE: Inverse mode at  67     Hk =   2.500

 Side 1  free  transition at x/c =  0.6724   69
 Side 2  free  transition at x/c =  0.4888   55

   1   rms: 0.1340E+00   max: -.9622E+00   D at   70  1   RLX: 0.520
       a =  0.000      CL =  0.1788
      Cm = -0.0325     CD =  0.00499   =>   CDf =  0.00453    CDp =  0.00046

 Side 1  free  transition at x/c =  0.6826   69
 Side 2  free  transition at x/c =  0.4810   55

   2   rms: 0.5954E-01   max: -.5249E+00   D at   70  1   RLX: 0.953
       a =  0.000      CL =  0.1942
      Cm = -0.0376     CD =  0.00558   =>   CDf =  0.00455    CDp =  0.00103

 Side 1  free  transition at x/c =  0.7171   70
 Side 2  free  transition at x/c =  0.5123   55

   3   rms: 0.2055E-01   max: -.3473E+00   C at   70  1
       a =  0.000      CL =  0.2009
      Cm = -0.0393     CD =  0.00538   =>   CDf =  0.00424    CDp =  0.00113

 Side 1  free  transition at x/c =  0.7149   70
 Side 2  free  transition at x/c =  0.5262   55

   4   rms: 0.1042E-02   max: 0.1797E-01   C at   70  1
       a =  0.000      CL =  0.2012
      Cm = -0.0394     CD =  0.00540   =>   CDf =  0.00414    CDp =  0.00126

 Side 1  free  transition at x/c =  0.7135   70
 Side 2  free  transition at x/c =  0.5268   55

   5   rms: 0.1590E-04   max: -.3131E-03   C at   70  1
       a =  0.000      CL =  0.2012
      Cm = -0.0394     CD =  0.00540   =>   CDf =  0.00414    CDp =  0.00126

.OPERv   c>  
.OPERv   c>  
 XFOIL   c>  
Errors:
