Output:

 ===================================================
  XFOIL Version 6.99
  Copyright (C) 2000   Mark Drela, Harold Youngren

  This software comes with ABSOLUTELY NO WARRANTY,
    subject to the GNU General Public License.

  Caveat computor
 ===================================================

 File  xfoil.def  not found

 Plain airfoil file

Enter airfoil name   s>  
 Number of input coordinate points: 199
 Counterclockwise ordering
 Max thickness =     0.199499  at x =   0.342
 Max camber    =    -0.008800  at x =   0.262

  LE  x,y  =   0.00000   0.00000  |   Chord =   1.00000
  TE  x,y  =   0.99863  -0.05224  |

 Current airfoil nodes set from buffer airfoil nodes ( 199 )

   QUIT    Exit program

  .OPER    Direct operating point(s)
  .MDES    Complex mapping design routine
  .QDES    Surface speed design routine
  .GDES    Geometry design routine

   SAVE f  Write airfoil to labeled coordinate file
   PSAV f  Write airfoil to plain coordinate file
   ISAV f  Write airfoil to ISES coordinate file
   MSAV f  Write airfoil to MSES coordinate file
   REVE    Reverse written-airfoil node ordering

   LOAD f  Read buffer airfoil from coordinate file
   NACA i  Set NACA 4,5-digit airfoil and buffer airfoil
   INTE    Set buffer airfoil by interpolating two airfoils
   NORM    Buffer airfoil normalization toggle
   XYCM rr Change CM reference location, currently  0.25000 0.00000

   BEND    Display structural properties of current airfoil

   PCOP    Set current-airfoil panel nodes directly from buffer airfoil points
   PANE    Set current-airfoil panel nodes ( 160 ) based on curvature
  .PPAR    Show/change paneling

  .PLOP    Plotting options

   WDEF f  Write  current-settings file
   RDEF f  Reread current-settings file
   NAME s  Specify new airfoil name
   NINC    Increment name version number

   Z       Zoom    | (available in all menus)
   U       Unzoom  | 

 XFOIL   c>  
.OPERi   c>  
.OPERi   c>  
Enter Reynolds number   r>  
 M  =    0.0000
 Re =   6600000

.OPERv   c>  
 Xtr/c     =  1.0000    top    side
 Xtr/c     =  1.0000    bottom side
 Ncrit     =    9.00   ( 0.070 % turb. level )
 Vacc      =  0.0100

 Klag  =  5.6000     Uxwt  =    1.00
 A     =  6.7000     B     =  0.7500       KCt = 0.01485
 CtiniK=  1.8000     CtiniX=  3.3000

..VPAR   c>  
..VPAR   c>  
..VPAR   c>  
.OPERv   c>   Calculating unit vorticity distributions ...
 Calculating wake trajectory ...
 Calculating source influence matrix ...

 Solving BL system ...

 Initializing BL ...
    side            1  ...
 MRCHUE: Inverse mode at  41     Hk =   2.500
 MRCHUE: Convergence failed at 104  side 1    Res =  0.2214E+02
    side            2  ...
 MRCHUE: Inverse mode at  96     Hk =   2.500
 MRCHUE: Convergence failed at  97  side 2    Res =  0.1769E+02

 MRCHDU: Convergence failed at 104  side 1    Res =  0.1512E+02
 MRCHDU: Convergence failed at  97  side 2    Res =  0.1753E+01
 Side 1 forced transition at x/c =  0.0500   41
 Side 2 forced transition at x/c =  0.1000   43

   1   rms: 0.5636E+00   max: 0.2803E+01   C at  123  2   RLX: 0.535
       a =  0.000      CL =  0.3976
      Cm = -0.0330     CD =  0.00399   =>   CDf =  0.00695    CDp = -0.00296

 Side 1 forced transition at x/c =  0.0500   41
 Side 2 forced transition at x/c =  0.1000   43
 idif Ue xi dudx           1  7.08105564E-02  2.61282921E-03   27.101105    
 Uenew xinew           2  1.30391195E-02  4.81128693E-04

   2   rms: 0.2093E+00   max: 0.1004E+01   D at   99  2
       a =  0.000      CL =  0.3115
      Cm = -0.0110     CD =  0.00832   =>   CDf =  0.00687    CDp =  0.00145

 Side 1 forced transition at x/c =  0.0500   40
 Side 2 forced transition at x/c =  0.1000   44

   3   rms: 0.3909E-01   max: 0.3177E+00   D at  103  1
       a =  0.000      CL =  0.2680
      Cm = -0.0017     CD =  0.00958   =>   CDf =  0.00688    CDp =  0.00270

 Side 1 forced transition at x/c =  0.0500   40
 Side 2 forced transition at x/c =  0.1000   44
 idif Ue xi dudx           1  7.28777051E-02  2.68089771E-03   27.184069    
 Uenew xinew           2  1.46701671E-02  5.39660454E-04

   4   rms: 0.5274E-01   max: 0.3180E+00   D at  103  1
       a =  0.000      CL =  0.1999
      Cm =  0.0128     CD =  0.00933   =>   CDf =  0.00682    CDp =  0.00251

 Side 1 forced transition at x/c =  0.0500   39
 Side 2 forced transition at x/c =  0.1000   45

   5   rms: 0.3836E-01   max: -.2354E+00   D at  102  1
       a =  0.000      CL =  0.2412
      Cm =  0.0040     CD =  0.00947   =>   CDf =  0.00687    CDp =  0.00260

 Side 1 forced transition at x/c =  0.0500   40
 Side 2 forced transition at x/c =  0.1000   44

   6   rms: 0.3582E-02   max: -.4628E-01   D at  100  2
       a =  0.000      CL =  0.2434
      Cm =  0.0035     CD =  0.00951   =>   CDf =  0.00685    CDp =  0.00266

 Side 1 forced transition at x/c =  0.0500   40
 Side 2 forced transition at x/c =  0.1000   44

   7   rms: 0.6147E-04   max: -.1399E-02   D at  100  2
       a =  0.000      CL =  0.2434
      Cm =  0.0035     CD =  0.00952   =>   CDf =  0.00685    CDp =  0.00266

.OPERv   c>  
.OPERv   c>  
 XFOIL   c>  
Errors:
