Output:

 ===================================================
  XFOIL Version 6.99
  Copyright (C) 2000   Mark Drela, Harold Youngren

  This software comes with ABSOLUTELY NO WARRANTY,
    subject to the GNU General Public License.

  Caveat computor
 ===================================================

 File  xfoil.def  not found

 Plain airfoil file

Enter airfoil name   s>  
 Number of input coordinate points: 198
 Counterclockwise ordering
 Max thickness =     0.200223  at x =   0.340
 Max camber    =    -0.009519  at x =   0.322

  LE  x,y  =   0.00000   0.00000  |   Chord =   1.00000
  TE  x,y  =   0.99863  -0.05224  |

 Current airfoil nodes set from buffer airfoil nodes ( 198 )

   QUIT    Exit program

  .OPER    Direct operating point(s)
  .MDES    Complex mapping design routine
  .QDES    Surface speed design routine
  .GDES    Geometry design routine

   SAVE f  Write airfoil to labeled coordinate file
   PSAV f  Write airfoil to plain coordinate file
   ISAV f  Write airfoil to ISES coordinate file
   MSAV f  Write airfoil to MSES coordinate file
   REVE    Reverse written-airfoil node ordering

   LOAD f  Read buffer airfoil from coordinate file
   NACA i  Set NACA 4,5-digit airfoil and buffer airfoil
   INTE    Set buffer airfoil by interpolating two airfoils
   NORM    Buffer airfoil normalization toggle
   XYCM rr Change CM reference location, currently  0.25000 0.00000

   BEND    Display structural properties of current airfoil

   PCOP    Set current-airfoil panel nodes directly from buffer airfoil points
   PANE    Set current-airfoil panel nodes ( 160 ) based on curvature
  .PPAR    Show/change paneling

  .PLOP    Plotting options

   WDEF f  Write  current-settings file
   RDEF f  Reread current-settings file
   NAME s  Specify new airfoil name
   NINC    Increment name version number

   Z       Zoom    | (available in all menus)
   U       Unzoom  | 

 XFOIL   c>  
.OPERi   c>  
.OPERi   c>  
Enter Reynolds number   r>  
 M  =    0.0000
 Re =   7100000

.OPERv   c>  
 Xtr/c     =  1.0000    top    side
 Xtr/c     =  1.0000    bottom side
 Ncrit     =    9.00   ( 0.070 % turb. level )
 Vacc      =  0.0100

 Klag  =  5.6000     Uxwt  =    1.00
 A     =  6.7000     B     =  0.7500       KCt = 0.01485
 CtiniK=  1.8000     CtiniX=  3.3000

..VPAR   c>  
..VPAR   c>  
..VPAR   c>  
.OPERv   c>   Calculating unit vorticity distributions ...
 Calculating wake trajectory ...
 Calculating source influence matrix ...

 Solving BL system ...

 Initializing BL ...
    side            1  ...
 MRCHUE: Inverse mode at  40     Hk =   2.500
 MRCHUE: Inverse mode at 100     Hk =   2.500
 MRCHUE: Inverse mode at 101     Hk =   2.500
 MRCHUE: Convergence failed at 102  side 1    Res =  0.7404E+01
    side            2  ...
 MRCHUE: Convergence failed at  98  side 2    Res =  0.7375E+01

 MRCHDU: Convergence failed at 102  side 1    Res =  0.5560E+01
 Side 1 forced transition at x/c =  0.0500   40
 Side 2 forced transition at x/c =  0.1000   44

   1   rms: 0.2872E+00   max: 0.1520E+01   D at  100  2   RLX: 0.741
       a =  0.000      CL =  0.2803
      Cm =  0.0063     CD =  0.00712   =>   CDf =  0.00682    CDp =  0.00030

 Side 1 forced transition at x/c =  0.0500   40
 Side 2 forced transition at x/c =  0.1000   44

   2   rms: 0.6406E-01   max: 0.3066E+00   D at  101  2
       a =  0.000      CL =  0.2425
      Cm =  0.0133     CD =  0.00933   =>   CDf =  0.00685    CDp =  0.00248

 Side 1 forced transition at x/c =  0.0500   40
 Side 2 forced transition at x/c =  0.1000   44

   3   rms: 0.3799E-02   max: -.3117E-01   D at  100  1
       a =  0.000      CL =  0.2377
      Cm =  0.0142     CD =  0.00949   =>   CDf =  0.00682    CDp =  0.00267

 Side 1 forced transition at x/c =  0.0500   40
 Side 2 forced transition at x/c =  0.1000   44

   4   rms: 0.5054E-04   max: -.6648E-03   D at  101  1
       a =  0.000      CL =  0.2377
      Cm =  0.0142     CD =  0.00949   =>   CDf =  0.00682    CDp =  0.00267

.OPERv   c>  
.OPERv   c>  
 XFOIL   c>  
Errors:
