Output:

 ===================================================
  XFOIL Version 6.99
  Copyright (C) 2000   Mark Drela, Harold Youngren

  This software comes with ABSOLUTELY NO WARRANTY,
    subject to the GNU General Public License.

  Caveat computor
 ===================================================

 File  xfoil.def  not found

 Plain airfoil file

Enter airfoil name   s>  
 Number of input coordinate points: 133
 Counterclockwise ordering
 Max thickness =     0.100631  at x =   0.384
 Max camber    =    -0.000005  at x =   0.811

  LE  x,y  =   0.00000   0.00000  |   Chord =   1.00000
  TE  x,y  =   1.00000   0.00000  |

 Current airfoil nodes set from buffer airfoil nodes ( 133 )

   QUIT    Exit program

  .OPER    Direct operating point(s)
  .MDES    Complex mapping design routine
  .QDES    Surface speed design routine
  .GDES    Geometry design routine

   SAVE f  Write airfoil to labeled coordinate file
   PSAV f  Write airfoil to plain coordinate file
   ISAV f  Write airfoil to ISES coordinate file
   MSAV f  Write airfoil to MSES coordinate file
   REVE    Reverse written-airfoil node ordering

   LOAD f  Read buffer airfoil from coordinate file
   NACA i  Set NACA 4,5-digit airfoil and buffer airfoil
   INTE    Set buffer airfoil by interpolating two airfoils
   NORM    Buffer airfoil normalization toggle
   XYCM rr Change CM reference location, currently  0.25000 0.00000

   BEND    Display structural properties of current airfoil

   PCOP    Set current-airfoil panel nodes directly from buffer airfoil points
   PANE    Set current-airfoil panel nodes ( 160 ) based on curvature
  .PPAR    Show/change paneling

  .PLOP    Plotting options

   WDEF f  Write  current-settings file
   RDEF f  Reread current-settings file
   NAME s  Specify new airfoil name
   NINC    Increment name version number

   Z       Zoom    | (available in all menus)
   U       Unzoom  | 

 XFOIL   c>  
.OPERi   c>  
.OPERi   c>  
Enter Reynolds number   r>  
 M  =    0.0000
 Re =    100000

.OPERv   c>  
 Xtr/c     =  1.0000    top    side
 Xtr/c     =  1.0000    bottom side
 Ncrit     =    9.00   ( 0.070 % turb. level )
 Vacc      =  0.0100

 Klag  =  5.6000     Uxwt  =    1.00
 A     =  6.7000     B     =  0.7500       KCt = 0.01485
 CtiniK=  1.8000     CtiniX=  3.3000

..VPAR   c>  
..VPAR   c>  
..VPAR   c>  
.OPERv   c>   Calculating unit vorticity distributions ...
 Calculating wake trajectory ...
 Calculating source influence matrix ...

 Solving BL system ...

 Initializing BL ...
    side            1  ...
 MRCHUE: Inverse mode at  30     Hk =   3.800
 MRCHUE: Inverse mode at  31     Hk =   4.038
 MRCHUE: Inverse mode at  32     Hk =   4.272
 MRCHUE: Inverse mode at  33     Hk =   4.504
 MRCHUE: Inverse mode at  34     Hk =   4.734
 MRCHUE: Inverse mode at  35     Hk =   4.964
 MRCHUE: Inverse mode at  36     Hk =   5.193
 MRCHUE: Inverse mode at  37     Hk =   5.423
 MRCHUE: Inverse mode at  38     Hk =   5.653
 MRCHUE: Inverse mode at  39     Hk =   5.884
 MRCHUE: Inverse mode at  40     Hk =   6.116
 MRCHUE: Inverse mode at  41     Hk =   6.349
 MRCHUE: Inverse mode at  42     Hk =   6.584
 MRCHUE: Inverse mode at  43     Hk =   6.821
 MRCHUE: Inverse mode at  44     Hk =   7.059
 MRCHUE: Inverse mode at  45     Hk =   7.298
 MRCHUE: Inverse mode at  46     Hk =   7.539
 MRCHUE: Inverse mode at  47     Hk =   7.782
 MRCHUE: Inverse mode at  48     Hk =   8.279
 MRCHUE: Inverse mode at  49     Hk =   8.782
 MRCHUE: Inverse mode at  50     Hk =   9.290
 MRCHUE: Inverse mode at  51     Hk =   9.805
 MRCHUE: Inverse mode at  52     Hk =  10.324
 MRCHUE: Inverse mode at  53     Hk =   6.714
 MRCHUE: Inverse mode at  54     Hk =   4.736
 MRCHUE: Inverse mode at  55     Hk =   3.396
 MRCHUE: Inverse mode at  76     Hk =   2.500
    side            2  ...
 MRCHUE: Inverse mode at  56     Hk =   4.463
 MRCHUE: Inverse mode at  57     Hk =   6.418
 MRCHUE: Inverse mode at  58     Hk =   7.093
 MRCHUE: Inverse mode at  59     Hk =   7.228

 Side 1  free  transition at x/c =  0.1199   53
 Side 2 forced transition at x/c =  1.0000   59

   1   rms: 0.1704E+00   max: -.1074E+01   D at   55  1   RLX: 0.466
       a =  3.500      CL =  0.4735
      Cm = -0.0018     CD =  0.01881   =>   CDf =  0.00975    CDp =  0.00906

 Side 1  free  transition at x/c =  0.1164   52
 Side 2 forced transition at x/c =  1.0000   59

   2   rms: 0.7960E-01   max: -.6011E+00   D at   76  1   RLX: 0.832
       a =  3.500      CL =  0.4807
      Cm = -0.0119     CD =  0.01873   =>   CDf =  0.00982    CDp =  0.00890

 Side 1  free  transition at x/c =  0.1131   52
 Side 2 forced transition at x/c =  1.0000   59

   3   rms: 0.6766E-01   max: -.3830E+00   T at   52  1
       a =  3.500      CL =  0.4273
      Cm = -0.0031     CD =  0.01864   =>   CDf =  0.00994    CDp =  0.00870

 Side 1  free  transition at x/c =  0.1231   53
 Side 2 forced transition at x/c =  1.0000   59

   4   rms: 0.1044E-01   max: -.8952E-01   T at   53  1
       a =  3.500      CL =  0.4223
      Cm = -0.0020     CD =  0.01825   =>   CDf =  0.00988    CDp =  0.00836

 Side 1  free  transition at x/c =  0.1250   53
 Side 2 forced transition at x/c =  1.0000   59

   5   rms: 0.5633E-03   max: -.6799E-02   D at   54  1
       a =  3.500      CL =  0.4223
      Cm = -0.0020     CD =  0.01829   =>   CDf =  0.00981    CDp =  0.00848

 Side 1  free  transition at x/c =  0.1250   53
 Side 2 forced transition at x/c =  1.0000   59

   6   rms: 0.5607E-05   max: -.3313E-04   D at    4  1
       a =  3.500      CL =  0.4223
      Cm = -0.0020     CD =  0.01829   =>   CDf =  0.00981    CDp =  0.00848

.OPERv   c>  
.OPERv   c>  
 XFOIL   c>  
Errors:
