Output:

 ===================================================
  XFOIL Version 6.99
  Copyright (C) 2000   Mark Drela, Harold Youngren

  This software comes with ABSOLUTELY NO WARRANTY,
    subject to the GNU General Public License.

  Caveat computor
 ===================================================

 File  xfoil.def  not found

 Plain airfoil file

Enter airfoil name   s>  
 Number of input coordinate points: 172
 Counterclockwise ordering
 Max thickness =     0.117194  at x =   0.166
 Max camber    =     0.021896  at x =   0.279

  LE  x,y  =  -0.00000   0.00000  |   Chord =   1.00000
  TE  x,y  =   1.00000  -0.00000  |

 Current airfoil nodes set from buffer airfoil nodes ( 172 )

   QUIT    Exit program

  .OPER    Direct operating point(s)
  .MDES    Complex mapping design routine
  .QDES    Surface speed design routine
  .GDES    Geometry design routine

   SAVE f  Write airfoil to labeled coordinate file
   PSAV f  Write airfoil to plain coordinate file
   ISAV f  Write airfoil to ISES coordinate file
   MSAV f  Write airfoil to MSES coordinate file
   REVE    Reverse written-airfoil node ordering

   LOAD f  Read buffer airfoil from coordinate file
   NACA i  Set NACA 4,5-digit airfoil and buffer airfoil
   INTE    Set buffer airfoil by interpolating two airfoils
   NORM    Buffer airfoil normalization toggle
   XYCM rr Change CM reference location, currently  0.25000 0.00000

   BEND    Display structural properties of current airfoil

   PCOP    Set current-airfoil panel nodes directly from buffer airfoil points
   PANE    Set current-airfoil panel nodes ( 160 ) based on curvature
  .PPAR    Show/change paneling

  .PLOP    Plotting options

   WDEF f  Write  current-settings file
   RDEF f  Reread current-settings file
   NAME s  Specify new airfoil name
   NINC    Increment name version number

   Z       Zoom    | (available in all menus)
   U       Unzoom  | 

 XFOIL   c>  
.OPERi   c>  
.OPERi   c>  
Enter Reynolds number   r>  
 M  =    0.0000
 Re =    100000

.OPERv   c>   Calculating unit vorticity distributions ...
 Calculating wake trajectory ...
 Calculating source influence matrix ...

 Solving BL system ...

 Initializing BL ...
    side            1  ...
 MRCHUE: Inverse mode at  78     Hk =   4.081
 MRCHUE: Inverse mode at  79     Hk =   4.451
 MRCHUE: Inverse mode at  80     Hk =   4.816
 MRCHUE: Inverse mode at  81     Hk =   5.180
 MRCHUE: Inverse mode at  82     Hk =   5.543
 MRCHUE: Inverse mode at  83     Hk =   6.091
 MRCHUE: Inverse mode at  84     Hk =   6.642
 MRCHUE: Inverse mode at  85     Hk =   7.388
 MRCHUE: Inverse mode at  86     Hk =   2.500
 MRCHUE: Inverse mode at  87     Hk =   2.500
 MRCHUE: Inverse mode at  88     Hk =   2.500
 MRCHUE: Inverse mode at  89     Hk =   2.500
    side            2  ...
 MRCHUE: Inverse mode at  66     Hk =   3.800
 MRCHUE: Inverse mode at  67     Hk =   4.075
 MRCHUE: Inverse mode at  68     Hk =   4.348
 MRCHUE: Inverse mode at  69     Hk =   4.620
 MRCHUE: Inverse mode at  70     Hk =   5.034
 MRCHUE: Inverse mode at  71     Hk =   5.597
 MRCHUE: Inverse mode at  72     Hk =   6.483
 MRCHUE: Inverse mode at  73     Hk =   8.615
 MRCHUE: Inverse mode at  74     Hk =   2.500

 Side 1  free  transition at x/c =  0.5272   86
 Side 2  free  transition at x/c =  0.3499   73

   1   rms: 0.8337E-01   max: 0.1208E+01   D at   86  1
       a =  0.000      CL =  0.1404
      Cm = -0.0144     CD =  0.01771   =>   CDf =  0.00903    CDp =  0.00868

 MRCHDU: Convergence failed at  86  side 1    Res =  0.2981E+01
 MRCHDU: Convergence failed at  87  side 1    Res =  0.7742E+01
 MRCHDU: Convergence failed at  88  side 1    Res =  0.9473E+02
 MRCHDU: Convergence failed at  89  side 1    Res =  0.9014E+01
 MRCHDU: Convergence failed at  90  side 1    Res =  0.1170E+02
 MRCHDU: Convergence failed at  91  side 1    Res =  0.2068E+02
 MRCHDU: Convergence failed at  92  side 1    Res =  0.7146E+02
 MRCHDU: Convergence failed at  93  side 1    Res =  0.2359E+03
 MRCHDU: Convergence failed at  94  side 1    Res =  0.6496E+02
 MRCHDU: Convergence failed at  95  side 1    Res =  0.3221E+02
 Side 1  free  transition at x/c =  0.4966   86
 Side 2  free  transition at x/c =  0.3485   73
 idif Ue xi dudx           1  0.14667544      2.22420692E-03   65.945053    
 Uenew xinew           2  5.46043329E-02  8.28027725E-04

   2   rms: 0.2577E+00   max: 0.1406E+01   T at   90  1
       a =  0.000      CL =  0.0775
      Cm = -0.0161     CD =  0.01737   =>   CDf =  0.00749    CDp =  0.00988

 Side 1  free  transition at x/c =  0.4859   85
 Side 2  free  transition at x/c =  0.3416   74

   3   rms: 0.1499E+00   max: -.9991E+00   D at   89  1   RLX: 0.500
       a =  0.000      CL =  0.0932
      Cm = -0.0082     CD =  0.02185   =>   CDf =  0.00783    CDp =  0.01402

 Side 1  free  transition at x/c =  0.4988   85
 Side 2  free  transition at x/c =  0.3446   74

   4   rms: 0.7529E-01   max: -.7757E+00   D at   90  1   RLX: 0.645
       a =  0.000      CL =  0.1243
      Cm = -0.0136     CD =  0.02030   =>   CDf =  0.00781    CDp =  0.01249

 Side 1  free  transition at x/c =  0.4970   86
 Side 2  free  transition at x/c =  0.3467   73

   5   rms: 0.3394E-01   max: -.4471E+00   D at   91  1
       a =  0.000      CL =  0.1492
      Cm = -0.0196     CD =  0.02030   =>   CDf =  0.00833    CDp =  0.01197

 Side 1  free  transition at x/c =  0.4900   86
 Side 2  free  transition at x/c =  0.3480   73

   6   rms: 0.6202E-02   max: -.1008E+00   D at   91  1
       a =  0.000      CL =  0.1514
      Cm = -0.0204     CD =  0.02043   =>   CDf =  0.00844    CDp =  0.01198

 Side 1  free  transition at x/c =  0.4888   86
 Side 2  free  transition at x/c =  0.3481   73

   7   rms: 0.2402E-03   max: -.4444E-02   D at   91  1
       a =  0.000      CL =  0.1515
      Cm = -0.0204     CD =  0.02043   =>   CDf =  0.00846    CDp =  0.01198

 Side 1  free  transition at x/c =  0.4887   86
 Side 2  free  transition at x/c =  0.3481   73

   8   rms: 0.6023E-06   max: -.7754E-05   D at   91  1
       a =  0.000      CL =  0.1515
      Cm = -0.0204     CD =  0.02043   =>   CDf =  0.00846    CDp =  0.01198

.OPERv   c>  
.OPERv   c>  
 XFOIL   c>  
Errors:
