Output:

 ===================================================
  XFOIL Version 6.99
  Copyright (C) 2000   Mark Drela, Harold Youngren

  This software comes with ABSOLUTELY NO WARRANTY,
    subject to the GNU General Public License.

  Caveat computor
 ===================================================

 File  xfoil.def  not found

 Plain airfoil file

Enter airfoil name   s>  
 Number of input coordinate points: 147
 Counterclockwise ordering
 Max thickness =     0.120315  at x =   0.262
 Max camber    =     0.031696  at x =   0.352

  LE  x,y  =  -0.00055   0.00566  |   Chord =   1.00057
  TE  x,y  =   1.00000  -0.00000  |

 Current airfoil nodes set from buffer airfoil nodes ( 147 )

   QUIT    Exit program

  .OPER    Direct operating point(s)
  .MDES    Complex mapping design routine
  .QDES    Surface speed design routine
  .GDES    Geometry design routine

   SAVE f  Write airfoil to labeled coordinate file
   PSAV f  Write airfoil to plain coordinate file
   ISAV f  Write airfoil to ISES coordinate file
   MSAV f  Write airfoil to MSES coordinate file
   REVE    Reverse written-airfoil node ordering

   LOAD f  Read buffer airfoil from coordinate file
   NACA i  Set NACA 4,5-digit airfoil and buffer airfoil
   INTE    Set buffer airfoil by interpolating two airfoils
   NORM    Buffer airfoil normalization toggle
   XYCM rr Change CM reference location, currently  0.25000 0.00000

   BEND    Display structural properties of current airfoil

   PCOP    Set current-airfoil panel nodes directly from buffer airfoil points
   PANE    Set current-airfoil panel nodes ( 160 ) based on curvature
  .PPAR    Show/change paneling

  .PLOP    Plotting options

   WDEF f  Write  current-settings file
   RDEF f  Reread current-settings file
   NAME s  Specify new airfoil name
   NINC    Increment name version number

   Z       Zoom    | (available in all menus)
   U       Unzoom  | 

 XFOIL   c>  
.OPERi   c>  
.OPERi   c>  
Enter Reynolds number   r>  
 M  =    0.0000
 Re =    100000

.OPERv   c>  
 Xtr/c     =  1.0000    top    side
 Xtr/c     =  1.0000    bottom side
 Ncrit     =    9.00   ( 0.070 % turb. level )
 Vacc      =  0.0100

 Klag  =  5.6000     Uxwt  =    1.00
 A     =  6.7000     B     =  0.7500       KCt = 0.01485
 CtiniK=  1.8000     CtiniX=  3.3000

..VPAR   c>  
..VPAR   c>  
..VPAR   c>  
.OPERv   c>   Calculating unit vorticity distributions ...
 Calculating wake trajectory ...
 Calculating source influence matrix ...

 Solving BL system ...

 Initializing BL ...
    side            1  ...
 MRCHUE: Inverse mode at  74     Hk =   3.915
 MRCHUE: Inverse mode at  75     Hk =   4.333
 MRCHUE: Inverse mode at  76     Hk =   4.743
 MRCHUE: Inverse mode at  77     Hk =   5.346
 MRCHUE: Inverse mode at  78     Hk =   5.932
 MRCHUE: Inverse mode at  79     Hk =   6.503
 MRCHUE: Inverse mode at  80     Hk =   7.059
 MRCHUE: Inverse mode at  81     Hk =   7.781
 MRCHUE: Inverse mode at  82     Hk =   8.475
 MRCHUE: Inverse mode at  83     Hk =   9.296
 MRCHUE: Inverse mode at  84     Hk =   4.695
 MRCHUE: Inverse mode at  85     Hk =   2.500
 MRCHUE: Inverse mode at  86     Hk =   2.500
 MRCHUE: Inverse mode at  87     Hk =   2.500
 MRCHUE: Inverse mode at  88     Hk =   2.500
 MRCHUE: Inverse mode at  89     Hk =   2.500
 MRCHUE: Inverse mode at  90     Hk =   2.500
 MRCHUE: Inverse mode at  91     Hk =   2.500
 MRCHUE: Inverse mode at  92     Hk =   2.500
    side            2  ...
 MRCHUE: Inverse mode at  52     Hk =   3.800
 MRCHUE: Inverse mode at  53     Hk =   3.965
 MRCHUE: Inverse mode at  54     Hk =   4.056
 MRCHUE: Convergence failed at  55  side 2    Res =  0.5154E+01
 MRCHUE: Inverse mode at  56     Hk =   4.092
 MRCHUE: Inverse mode at  57     Hk =   4.124

 Side 1  free  transition at x/c =  0.7541   84
 Side 2 forced transition at x/c =  1.0000   57

   1   rms: 0.1931E+00   max: 0.1005E+01   D at   62  2   RLX: 0.981
       a =  0.000      CL =  0.4146
      Cm = -0.0742     CD =  0.01504   =>   CDf =  0.00690    CDp =  0.00814

 Side 1  free  transition at x/c =  0.7602   85
 Side 2 forced transition at x/c =  1.0000   56

   2   rms: 0.3734E-01   max: -.2811E+00   D at   63  2
       a =  0.000      CL =  0.4122
      Cm = -0.0730     CD =  0.01606   =>   CDf =  0.00665    CDp =  0.00941

 Side 1  free  transition at x/c =  0.7495   84
 Side 2 forced transition at x/c =  1.0000   56
 idif Ue xi dudx           1  7.61541054E-02  1.83117390E-03   41.587589    
 Uenew xinew           2  1.01135590E-03  2.43186951E-05

   3   rms: 0.1364E-01   max: -.7383E-01   C at   84  1
       a =  0.000      CL =  0.4006
      Cm = -0.0718     CD =  0.01653   =>   CDf =  0.00576    CDp =  0.01077

 Side 1  free  transition at x/c =  0.7457   83
 Side 2 forced transition at x/c =  1.0000   57

   4   rms: 0.2760E-02   max: -.3536E-01   T at    2  2
       a =  0.000      CL =  0.4012
      Cm = -0.0719     CD =  0.01652   =>   CDf =  0.00654    CDp =  0.00998

 Side 1  free  transition at x/c =  0.7454   83
 Side 2 forced transition at x/c =  1.0000   57

   5   rms: 0.1164E-02   max: 0.1469E-01   D at    4  2
       a =  0.000      CL =  0.4012
      Cm = -0.0719     CD =  0.01652   =>   CDf =  0.00654    CDp =  0.00999

 Side 1  free  transition at x/c =  0.7454   83
 Side 2 forced transition at x/c =  1.0000   57

   6   rms: 0.4446E-05   max: -.5658E-04   D at    4  2
       a =  0.000      CL =  0.4012
      Cm = -0.0719     CD =  0.01652   =>   CDf =  0.00654    CDp =  0.00999

.OPERv   c>  
.OPERv   c>  
 XFOIL   c>  
Errors:
