Output:

 ===================================================
  XFOIL Version 6.99
  Copyright (C) 2000   Mark Drela, Harold Youngren

  This software comes with ABSOLUTELY NO WARRANTY,
    subject to the GNU General Public License.

  Caveat computor
 ===================================================

 File  xfoil.def  not found

 Plain airfoil file

Enter airfoil name   s>  
 Number of input coordinate points: 191
 Counterclockwise ordering
 Max thickness =     0.152217  at x =   0.393
 Max camber    =    -0.000025  at x =   0.915

  LE  x,y  =   0.00000   0.00000  |   Chord =   1.00000
  TE  x,y  =   1.00000   0.00000  |

 Current airfoil nodes set from buffer airfoil nodes ( 191 )

   QUIT    Exit program

  .OPER    Direct operating point(s)
  .MDES    Complex mapping design routine
  .QDES    Surface speed design routine
  .GDES    Geometry design routine

   SAVE f  Write airfoil to labeled coordinate file
   PSAV f  Write airfoil to plain coordinate file
   ISAV f  Write airfoil to ISES coordinate file
   MSAV f  Write airfoil to MSES coordinate file
   REVE    Reverse written-airfoil node ordering

   LOAD f  Read buffer airfoil from coordinate file
   NACA i  Set NACA 4,5-digit airfoil and buffer airfoil
   INTE    Set buffer airfoil by interpolating two airfoils
   NORM    Buffer airfoil normalization toggle
   XYCM rr Change CM reference location, currently  0.25000 0.00000

   BEND    Display structural properties of current airfoil

   PCOP    Set current-airfoil panel nodes directly from buffer airfoil points
   PANE    Set current-airfoil panel nodes ( 160 ) based on curvature
  .PPAR    Show/change paneling

  .PLOP    Plotting options

   WDEF f  Write  current-settings file
   RDEF f  Reread current-settings file
   NAME s  Specify new airfoil name
   NINC    Increment name version number

   Z       Zoom    | (available in all menus)
   U       Unzoom  | 

 XFOIL   c>  
.OPERi   c>  
.OPERi   c>  
Enter Reynolds number   r>  
 M  =    0.0000
 Re =    706031

.OPERv   c>  
 Xtr/c     =  1.0000    top    side
 Xtr/c     =  1.0000    bottom side
 Ncrit     =    9.00   ( 0.070 % turb. level )
 Vacc      =  0.0100

 Klag  =  5.6000     Uxwt  =    1.00
 A     =  6.7000     B     =  0.7500       KCt = 0.01485
 CtiniK=  1.8000     CtiniX=  3.3000

..VPAR   c>  
..VPAR   c>  
..VPAR   c>  
.OPERv   c>   Calculating unit vorticity distributions ...
 Calculating wake trajectory ...
 Calculating source influence matrix ...

 Solving BL system ...

 Initializing BL ...
    side            1  ...
 MRCHUE: Inverse mode at  35     Hk =   2.500
 MRCHUE: Inverse mode at  36     Hk =   2.500
 MRCHUE: Inverse mode at  89     Hk =   2.500
 MRCHUE: Inverse mode at  90     Hk =   2.500
 MRCHUE: Inverse mode at  91     Hk =   2.500
 MRCHUE: Inverse mode at  92     Hk =   2.500
 MRCHUE: Inverse mode at  93     Hk =   2.500
 MRCHUE: Inverse mode at  94     Hk =   2.500
 MRCHUE: Inverse mode at  95     Hk =   2.500
 MRCHUE: Inverse mode at  96     Hk =   2.500
    side            2  ...
 MRCHUE: Inverse mode at  47     Hk =   2.500
 MRCHUE: Inverse mode at  91     Hk =   2.500
 MRCHUE: Inverse mode at  92     Hk =   2.500
 MRCHUE: Inverse mode at  93     Hk =   2.500
 MRCHUE: Inverse mode at  94     Hk =   2.500
 MRCHUE: Inverse mode at  95     Hk =   2.500
 MRCHUE: Inverse mode at  96     Hk =   2.500
 MRCHUE: Inverse mode at  97     Hk =   2.500

 Side 1 forced transition at x/c =  0.0500   35
 Side 2 forced transition at x/c =  0.1000   47

   1   rms: 0.1587E+00   max: 0.7782E+00   D at  104  2   RLX: 0.871
       a =  0.000      CL = -0.0008
      Cm =  0.0002     CD =  0.01118   =>   CDf =  0.00963    CDp =  0.00155

 Side 1 forced transition at x/c =  0.0500   36
 Side 2 forced transition at x/c =  0.1000   46
 idif Ue xi dudx           1  6.78098202E-02  1.68240070E-03   40.305393    
 Uenew xinew           2  1.06666051E-03  2.64644623E-05

   2   rms: 0.3780E-01   max: -.2202E+00   D at   90  1
       a =  0.000      CL = -0.0024
      Cm =  0.0004     CD =  0.01264   =>   CDf =  0.00982    CDp =  0.00282

 Side 1 forced transition at x/c =  0.0500   35
 Side 2 forced transition at x/c =  0.1000   47

   3   rms: 0.5283E-02   max: -.3380E-01   D at   97  2
       a =  0.000      CL = -0.0022
      Cm =  0.0003     CD =  0.01269   =>   CDf =  0.00977    CDp =  0.00292

 Side 1 forced transition at x/c =  0.0500   35
 Side 2 forced transition at x/c =  0.1000   47

   4   rms: 0.1749E-03   max: -.1762E-02   D at    4  2
       a =  0.000      CL = -0.0021
      Cm =  0.0003     CD =  0.01269   =>   CDf =  0.00977    CDp =  0.00292

 Side 1 forced transition at x/c =  0.0500   35
 Side 2 forced transition at x/c =  0.1000   47

   5   rms: 0.8312E-05   max: -.1153E-03   D at    4  2
       a =  0.000      CL = -0.0021
      Cm =  0.0003     CD =  0.01269   =>   CDf =  0.00977    CDp =  0.00292

.OPERv   c>  
.OPERv   c>  
 XFOIL   c>  
Errors:
