Output:

 ===================================================
  XFOIL Version 6.99
  Copyright (C) 2000   Mark Drela, Harold Youngren

  This software comes with ABSOLUTELY NO WARRANTY,
    subject to the GNU General Public License.

  Caveat computor
 ===================================================

 File  xfoil.def  not found

 Plain airfoil file

Enter airfoil name   s>  
 Number of input coordinate points: 299
 Counterclockwise ordering
 Max thickness =     0.160504  at x =   0.315
 Max camber    =     0.015490  at x =   0.263

  LE  x,y  =  -0.00000  -0.00000  |   Chord =   1.00000
  TE  x,y  =   1.00000   0.00000  |

 Current airfoil nodes set from buffer airfoil nodes ( 299 )

   QUIT    Exit program

  .OPER    Direct operating point(s)
  .MDES    Complex mapping design routine
  .QDES    Surface speed design routine
  .GDES    Geometry design routine

   SAVE f  Write airfoil to labeled coordinate file
   PSAV f  Write airfoil to plain coordinate file
   ISAV f  Write airfoil to ISES coordinate file
   MSAV f  Write airfoil to MSES coordinate file
   REVE    Reverse written-airfoil node ordering

   LOAD f  Read buffer airfoil from coordinate file
   NACA i  Set NACA 4,5-digit airfoil and buffer airfoil
   INTE    Set buffer airfoil by interpolating two airfoils
   NORM    Buffer airfoil normalization toggle
   XYCM rr Change CM reference location, currently  0.25000 0.00000

   BEND    Display structural properties of current airfoil

   PCOP    Set current-airfoil panel nodes directly from buffer airfoil points
   PANE    Set current-airfoil panel nodes ( 160 ) based on curvature
  .PPAR    Show/change paneling

  .PLOP    Plotting options

   WDEF f  Write  current-settings file
   RDEF f  Reread current-settings file
   NAME s  Specify new airfoil name
   NINC    Increment name version number

   Z       Zoom    | (available in all menus)
   U       Unzoom  | 

 XFOIL   c>  
.OPERi   c>  
.OPERi   c>  
Enter Reynolds number   r>  
 M  =    0.0000
 Re =   1000000

.OPERv   c>  
.OPERv   c>  
 Xtr/c     =  1.0000    top    side
 Xtr/c     =  1.0000    bottom side
 Ncrit     =    9.00   ( 0.070 % turb. level )
 Vacc      =  0.0100

 Klag  =  5.6000     Uxwt  =    1.00
 A     =  6.7000     B     =  0.7500       KCt = 0.01485
 CtiniK=  1.8000     CtiniX=  3.3000

..VPAR   c>  
..VPAR   c>  
..VPAR   c>  
.OPERv   c>   Calculating unit vorticity distributions ...
 Calculating wake trajectory ...
 Array size (IWX) too small.  Last wake point index reduced.
 Calculating source influence matrix ...

 Solving BL system ...

 Initializing BL ...
    side            1  ...
 MRCHUE: Inverse mode at 153     Hk =   2.500
    side            2  ...
 MRCHUE: Inverse mode at 148     Hk =   2.500

 Side 1 forced transition at x/c =  0.0500   38
 Side 2 forced transition at x/c =  0.0500   31

   1   rms: 0.9657E-01   max: -.8243E+00   D at  148  2   RLX: 0.607
       a =  2.145      CL =  0.3003
      Cm =  0.0039     CD =  0.01142   =>   CDf =  0.00920    CDp =  0.00222

 Side 1 forced transition at x/c =  0.0500   38
 Side 2 forced transition at x/c =  0.0500   31

   2   rms: 0.4199E-01   max: -.4733E+00   D at  148  2
       a =  1.958      CL =  0.3000
      Cm = -0.0013     CD =  0.01221   =>   CDf =  0.00926    CDp =  0.00295

 Side 1 forced transition at x/c =  0.0500   38
 Side 2 forced transition at x/c =  0.0500   31

   3   rms: 0.1125E-01   max: -.1551E+00   D at  153  1
       a =  1.893      CL =  0.3000
      Cm = -0.0030     CD =  0.01226   =>   CDf =  0.00930    CDp =  0.00296

 Side 1 forced transition at x/c =  0.0500   38
 Side 2 forced transition at x/c =  0.0500   31

   4   rms: 0.1019E-02   max: -.1500E-01   D at  153  1
       a =  1.896      CL =  0.3000
      Cm = -0.0029     CD =  0.01228   =>   CDf =  0.00930    CDp =  0.00299

 Side 1 forced transition at x/c =  0.0500   38
 Side 2 forced transition at x/c =  0.0500   31

   5   rms: 0.8694E-05   max: -.1231E-03   D at  153  1
       a =  1.896      CL =  0.3000
      Cm = -0.0029     CD =  0.01229   =>   CDf =  0.00930    CDp =  0.00299

.OPERv   c>  
.OPERv   c>  
 XFOIL   c>  
Errors:
