Output:

 ===================================================
  XFOIL Version 6.99
  Copyright (C) 2000   Mark Drela, Harold Youngren

  This software comes with ABSOLUTELY NO WARRANTY,
    subject to the GNU General Public License.

  Caveat computor
 ===================================================

 File  xfoil.def  not found

 Plain airfoil file

Enter airfoil name   s>  
 Number of input coordinate points: 108
 Counterclockwise ordering
 Max thickness =     0.113753  at x =   0.287
 Max camber    =     0.022624  at x =   0.466

  LE  x,y  =   0.00000  -0.00006  |   Chord =   1.00016
  TE  x,y  =   1.00016   0.00133  |

 Current airfoil nodes set from buffer airfoil nodes ( 108 )

   QUIT    Exit program

  .OPER    Direct operating point(s)
  .MDES    Complex mapping design routine
  .QDES    Surface speed design routine
  .GDES    Geometry design routine

   SAVE f  Write airfoil to labeled coordinate file
   PSAV f  Write airfoil to plain coordinate file
   ISAV f  Write airfoil to ISES coordinate file
   MSAV f  Write airfoil to MSES coordinate file
   REVE    Reverse written-airfoil node ordering

   LOAD f  Read buffer airfoil from coordinate file
   NACA i  Set NACA 4,5-digit airfoil and buffer airfoil
   INTE    Set buffer airfoil by interpolating two airfoils
   NORM    Buffer airfoil normalization toggle
   XYCM rr Change CM reference location, currently  0.25000 0.00000

   BEND    Display structural properties of current airfoil

   PCOP    Set current-airfoil panel nodes directly from buffer airfoil points
   PANE    Set current-airfoil panel nodes ( 160 ) based on curvature
  .PPAR    Show/change paneling

  .PLOP    Plotting options

   WDEF f  Write  current-settings file
   RDEF f  Reread current-settings file
   NAME s  Specify new airfoil name
   NINC    Increment name version number

   Z       Zoom    | (available in all menus)
   U       Unzoom  | 

 XFOIL   c>  
.OPERi   c>  
.OPERi   c>  
Enter Reynolds number   r>  
 M  =    0.0000
 Re =    100000

.OPERv   c>   Calculating unit vorticity distributions ...
 Calculating wake trajectory ...
 Calculating source influence matrix ...

 Solving BL system ...

 Initializing BL ...
    side            1  ...
 MRCHUE: Inverse mode at  49     Hk =   3.800
 MRCHUE: Inverse mode at  50     Hk =   4.007
 MRCHUE: Inverse mode at  51     Hk =   4.204
 MRCHUE: Inverse mode at  52     Hk =   4.395
 MRCHUE: Convergence failed at  53  side 1    Res =  0.3125E+01
 MRCHUE: Inverse mode at  54     Hk =   4.579
 MRCHUE: Convergence failed at  55  side 1    Res =  0.1270E+02
 MRCHUE: Convergence failed at  56  side 1    Res =  0.3253E+01
 MRCHUE: Inverse mode at  57     Hk =   4.794
 MRCHUE: Inverse mode at  58     Hk =   5.024
 MRCHUE: Convergence failed at  59  side 1    Res =  0.2504E+01
 MRCHUE: Inverse mode at  60     Hk =   5.295
 MRCHUE: Inverse mode at  61     Hk =   5.590
 MRCHUE: Inverse mode at  62     Hk =   5.915
 MRCHUE: Inverse mode at  63     Hk =   6.273
 MRCHUE: Inverse mode at  64     Hk =   6.668
 MRCHUE: Inverse mode at  65     Hk =   7.104
 MRCHUE: Inverse mode at  66     Hk =   7.586
 MRCHUE: Inverse mode at  67     Hk =   8.117
 MRCHUE: Inverse mode at  68     Hk =   8.703
 MRCHUE: Inverse mode at  69     Hk =   9.347
 MRCHUE: Inverse mode at  70     Hk =   6.147
    side            2  ...
 MRCHUE: Inverse mode at  37     Hk =   4.490
 MRCHUE: Inverse mode at  38     Hk =   2.500
 MRCHUE: Inverse mode at  42     Hk =   2.906

 MRCHDU: Convergence failed at  55  side 1    Res =  0.2129E+01
 MRCHDU: Convergence failed at  56  side 1    Res =  0.4443E+01
 MRCHDU: Convergence failed at  57  side 1    Res =  0.3653E+01
 MRCHDU: Convergence failed at  58  side 1    Res =  0.3435E+01
 MRCHDU: Convergence failed at  59  side 1    Res =  0.4456E+01
 MRCHDU: Convergence failed at  60  side 1    Res =  0.4887E+01
 MRCHDU: Convergence failed at  61  side 1    Res =  0.5550E+01
 MRCHDU: Convergence failed at  62  side 1    Res =  0.6658E+01
 MRCHDU: Convergence failed at  63  side 1    Res =  0.8278E+01
 MRCHDU: Convergence failed at  64  side 1    Res =  0.1246E+02
 MRCHDU: Convergence failed at  65  side 1    Res =  0.2133E+02
 MRCHDU: Convergence failed at  66  side 1    Res =  0.4547E+02
 MRCHDU: Convergence failed at  67  side 1    Res =  0.1147E+02
 MRCHDU: Convergence failed at  68  side 1    Res =  0.5724E+01
 MRCHDU: Convergence failed at  69  side 1    Res =  0.4758E+01
 MRCHDU: Convergence failed at  70  side 1    Res =  0.6857E+01
 Side 1 forced transition at x/c =  1.0003   70
 Side 2  free  transition at x/c =  0.5943   38

   1   rms: 0.5803E+00   max: 0.3032E+01   D at   63  1   RLX: 0.495
       a =  1.000      CL =  0.3210
      Cm = -0.0946     CD =  0.00940   =>   CDf =  0.00747    CDp =  0.00194

 Side 1  free  transition at x/c =  0.8677   68
 Side 2  free  transition at x/c =  0.6845   38

   2   rms: 0.5327E+00   max: -.6860E+01   C at   38  2   RLX: 0.073
       a =  1.000      CL =  0.3559
      Cm = -0.0980     CD =  0.01915   =>   CDf =  0.00698    CDp =  0.01217

 Side 1  free  transition at x/c =  0.8634   67
 Side 2  free  transition at x/c =  0.8518   39

   3   rms: 0.4219E+00   max: -.6063E+01   C at   39  2   RLX: 0.082
       a =  1.000      CL =  0.3685
      Cm = -0.1003     CD =  0.01806   =>   CDf =  0.00655    CDp =  0.01152

 Side 1  free  transition at x/c =  0.8547   67
 Side 2  free  transition at x/c =  0.9784   40

   4   rms: 0.7401E+00   max: -.1388E+02   C at   40  2   RLX: 0.036
       a =  1.000      CL =  0.3818
      Cm = -0.1022     CD =  0.01848   =>   CDf =  0.00642    CDp =  0.01206

 Side 1  free  transition at x/c =  0.8520   67
 Side 2 forced transition at x/c =  0.9997   40

   5   rms: 0.2221E+00   max: 0.1168E+01   T at   67  1   RLX: 0.658
       a =  1.000      CL =  0.4453
      Cm = -0.0974     CD =  0.01944   =>   CDf =  0.00625    CDp =  0.01319

 Side 1  free  transition at x/c =  0.8281   67
 Side 2 forced transition at x/c =  0.9997   39
 idif Ue xi dudx           1  0.19849373      3.91173363E-03   50.743164    
 Uenew xinew           2  5.96013553E-02  1.17456913E-03

   6   rms: 0.2061E+00   max: -.1067E+01   C at   39  2   RLX: 0.469
       a =  1.000      CL =  0.3582
      Cm = -0.0838     CD =  0.02325   =>   CDf =  0.00636    CDp =  0.01690

 Side 1  free  transition at x/c =  0.8209   66
 Side 2 forced transition at x/c =  0.9997   40

   7   rms: 0.7030E-01   max: 0.2865E+00   D at   67  1
       a =  1.000      CL =  0.3087
      Cm = -0.0730     CD =  0.02608   =>   CDf =  0.00635    CDp =  0.01973

 Side 1  free  transition at x/c =  0.8170   66
 Side 2 forced transition at x/c =  0.9997   40

   8   rms: 0.1529E-01   max: 0.1472E+00   D at   66  1
       a =  1.000      CL =  0.3106
      Cm = -0.0737     CD =  0.02613   =>   CDf =  0.00621    CDp =  0.01992

 Side 1  free  transition at x/c =  0.8132   66
 Side 2 forced transition at x/c =  0.9997   40

   9   rms: 0.1176E-02   max: -.6950E-02   D at   66  1
       a =  1.000      CL =  0.3109
      Cm = -0.0736     CD =  0.02607   =>   CDf =  0.00619    CDp =  0.01988

 Side 1  free  transition at x/c =  0.8130   66
 Side 2 forced transition at x/c =  0.9997   40

  10   rms: 0.1719E-04   max: -.1177E-03   D at   69  1
       a =  1.000      CL =  0.3109
      Cm = -0.0736     CD =  0.02607   =>   CDf =  0.00619    CDp =  0.01988

.OPERv   c>  
.OPERv   c>  
 XFOIL   c>  
Errors:
