Output:

 ===================================================
  XFOIL Version 6.99
  Copyright (C) 2000   Mark Drela, Harold Youngren

  This software comes with ABSOLUTELY NO WARRANTY,
    subject to the GNU General Public License.

  Caveat computor
 ===================================================

 File  xfoil.def  not found

 Plain airfoil file

Enter airfoil name   s>  
 Number of input coordinate points: 299
 Counterclockwise ordering
 Max thickness =     0.147482  at x =   0.262
 Max camber    =     0.021007  at x =   0.204

  LE  x,y  =   0.00000   0.00000  |   Chord =   1.00000
  TE  x,y  =   1.00000   0.00000  |

 Current airfoil nodes set from buffer airfoil nodes ( 299 )

   QUIT    Exit program

  .OPER    Direct operating point(s)
  .MDES    Complex mapping design routine
  .QDES    Surface speed design routine
  .GDES    Geometry design routine

   SAVE f  Write airfoil to labeled coordinate file
   PSAV f  Write airfoil to plain coordinate file
   ISAV f  Write airfoil to ISES coordinate file
   MSAV f  Write airfoil to MSES coordinate file
   REVE    Reverse written-airfoil node ordering

   LOAD f  Read buffer airfoil from coordinate file
   NACA i  Set NACA 4,5-digit airfoil and buffer airfoil
   INTE    Set buffer airfoil by interpolating two airfoils
   NORM    Buffer airfoil normalization toggle
   XYCM rr Change CM reference location, currently  0.25000 0.00000

   BEND    Display structural properties of current airfoil

   PCOP    Set current-airfoil panel nodes directly from buffer airfoil points
   PANE    Set current-airfoil panel nodes ( 160 ) based on curvature
  .PPAR    Show/change paneling

  .PLOP    Plotting options

   WDEF f  Write  current-settings file
   RDEF f  Reread current-settings file
   NAME s  Specify new airfoil name
   NINC    Increment name version number

   Z       Zoom    | (available in all menus)
   U       Unzoom  | 

 XFOIL   c>  
.OPERi   c>  
.OPERi   c>  
Enter Reynolds number   r>  
 M  =    0.0000
 Re =    700000

.OPERv   c>  
 Sonic Cp =     -6.95      Sonic Q/Qinf =     3.070


.OPERv   c>  
 Xtr/c     =  1.0000    top    side
 Xtr/c     =  1.0000    bottom side
 Ncrit     =    9.00   ( 0.070 % turb. level )
 Vacc      =  0.0100

 Klag  =  5.6000     Uxwt  =    1.00
 A     =  6.7000     B     =  0.7500       KCt = 0.01485
 CtiniK=  1.8000     CtiniX=  3.3000

..VPAR   c>  
..VPAR   c>  
..VPAR   c>  
.OPERv   c>   Calculating unit vorticity distributions ...
 Calculating wake trajectory ...
 Array size (IWX) too small.  Last wake point index reduced.
 Calculating source influence matrix ...

 Solving BL system ...

 Initializing BL ...
    side            1  ...
 MRCHUE: Inverse mode at 153     Hk =   2.500
    side            2  ...
 MRCHUE: Inverse mode at  38     Hk =   2.500
 MRCHUE: Inverse mode at  39     Hk =   2.500
 MRCHUE: Inverse mode at 148     Hk =   2.500

 Side 1 forced transition at x/c =  0.0500   45
 Side 2 forced transition at x/c =  0.0500   38

   1   rms: 0.1326E+00   max: 0.6466E+00   D at  151  2   RLX: 0.525
       a =  2.550      CL =  0.4005
      Cm =  0.0076     CD =  0.01131   =>   CDf =  0.00966    CDp =  0.00165

 Side 1 forced transition at x/c =  0.0500   45
 Side 2 forced transition at x/c =  0.0500   38

   2   rms: 0.4814E-01   max: -.2842E+00   D at  148  2
       a =  2.685      CL =  0.4000
      Cm =  0.0099     CD =  0.01327   =>   CDf =  0.00962    CDp =  0.00365

 Side 1 forced transition at x/c =  0.0500   46
 Side 2 forced transition at x/c =  0.0500   37
 idif Ue xi dudx           1  7.19044283E-02  1.33597851E-03   53.821545    
 Uenew xinew           2  3.83678474E-03  7.12871552E-05

   3   rms: 0.8196E-02   max: 0.4426E-01   D at  146  2
       a =  2.591      CL =  0.4000
      Cm =  0.0074     CD =  0.01333   =>   CDf =  0.00969    CDp =  0.00364

 Side 1 forced transition at x/c =  0.0500   45
 Side 2 forced transition at x/c =  0.0500   38

   4   rms: 0.2242E-03   max: -.1537E-02   D at  153  1
       a =  2.589      CL =  0.4000
      Cm =  0.0074     CD =  0.01334   =>   CDf =  0.00966    CDp =  0.00368

 Side 1 forced transition at x/c =  0.0500   45
 Side 2 forced transition at x/c =  0.0500   38

   5   rms: 0.5666E-04   max: 0.9940E-03   D at    4  2
       a =  2.589      CL =  0.4000
      Cm =  0.0074     CD =  0.01334   =>   CDf =  0.00966    CDp =  0.00368

.OPERv   c>  
.OPERv   c>  
 XFOIL   c>  
Errors:
