Output:

 ===================================================
  XFOIL Version 6.99
  Copyright (C) 2000   Mark Drela, Harold Youngren

  This software comes with ABSOLUTELY NO WARRANTY,
    subject to the GNU General Public License.

  Caveat computor
 ===================================================

 File  xfoil.def  not found

 Plain airfoil file

Enter airfoil name   s>  
 Number of input coordinate points: 299
 Counterclockwise ordering
 Max thickness =     0.138553  at x =   0.259
 Max camber    =     0.030838  at x =   0.274

  LE  x,y  =  -0.00203   0.01174  |   Chord =   1.00210
  TE  x,y  =   1.00000   0.00000  |

 Current airfoil nodes set from buffer airfoil nodes ( 299 )

   QUIT    Exit program

  .OPER    Direct operating point(s)
  .MDES    Complex mapping design routine
  .QDES    Surface speed design routine
  .GDES    Geometry design routine

   SAVE f  Write airfoil to labeled coordinate file
   PSAV f  Write airfoil to plain coordinate file
   ISAV f  Write airfoil to ISES coordinate file
   MSAV f  Write airfoil to MSES coordinate file
   REVE    Reverse written-airfoil node ordering

   LOAD f  Read buffer airfoil from coordinate file
   NACA i  Set NACA 4,5-digit airfoil and buffer airfoil
   INTE    Set buffer airfoil by interpolating two airfoils
   NORM    Buffer airfoil normalization toggle
   XYCM rr Change CM reference location, currently  0.25000 0.00000

   BEND    Display structural properties of current airfoil

   PCOP    Set current-airfoil panel nodes directly from buffer airfoil points
   PANE    Set current-airfoil panel nodes ( 160 ) based on curvature
  .PPAR    Show/change paneling

  .PLOP    Plotting options

   WDEF f  Write  current-settings file
   RDEF f  Reread current-settings file
   NAME s  Specify new airfoil name
   NINC    Increment name version number

   Z       Zoom    | (available in all menus)
   U       Unzoom  | 

 XFOIL   c>  
.OPERi   c>  
.OPERi   c>  
Enter Reynolds number   r>  
 M  =    0.0000
 Re =   1000000

.OPERv   c>  
 Sonic Cp =    -16.31      Sonic Q/Qinf =     4.583


.OPERv   c>  
 Xtr/c     =  1.0000    top    side
 Xtr/c     =  1.0000    bottom side
 Ncrit     =    9.00   ( 0.070 % turb. level )
 Vacc      =  0.0100

 Klag  =  5.6000     Uxwt  =    1.00
 A     =  6.7000     B     =  0.7500       KCt = 0.01485
 CtiniK=  1.8000     CtiniX=  3.3000

..VPAR   c>  
..VPAR   c>  
..VPAR   c>  
.OPERv   c>   Calculating unit vorticity distributions ...
 Calculating wake trajectory ...
 Array size (IWX) too small.  Last wake point index reduced.
 Calculating source influence matrix ...

 Solving BL system ...

 Initializing BL ...
    side            1  ...
 MRCHUE: Inverse mode at 141     Hk =   2.500
    side            2  ...
 MRCHUE: Inverse mode at  42     Hk =   2.500
 MRCHUE: Inverse mode at  43     Hk =   2.500
 MRCHUE: Inverse mode at  44     Hk =   2.500
 MRCHUE: Inverse mode at 160     Hk =   2.500

 Side 1 forced transition at x/c =  0.1000   45
 Side 2 forced transition at x/c =  0.0500   42

   1   rms: 0.5092E-01   max: -.5608E+00   D at  141  1   RLX: 0.892
       a =  0.000      CL =  0.2456
      Cm = -0.0039     CD =  0.01125   =>   CDf =  0.00871    CDp =  0.00255

 Side 1 forced transition at x/c =  0.1000   45
 Side 2 forced transition at x/c =  0.0500   42

   2   rms: 0.2046E-01   max: -.2988E+00   D at  141  1
       a =  0.000      CL =  0.2338
      Cm = -0.0016     CD =  0.01139   =>   CDf =  0.00875    CDp =  0.00264

 Side 1 forced transition at x/c =  0.1000   45
 Side 2 forced transition at x/c =  0.0500   42

   3   rms: 0.5015E-02   max: -.7034E-01   D at  141  1
       a =  0.000      CL =  0.2300
      Cm = -0.0008     CD =  0.01139   =>   CDf =  0.00875    CDp =  0.00264

 Side 1 forced transition at x/c =  0.1000   45
 Side 2 forced transition at x/c =  0.0500   42

   4   rms: 0.2153E-03   max: -.3390E-02   D at  160  2
       a =  0.000      CL =  0.2300
      Cm = -0.0008     CD =  0.01140   =>   CDf =  0.00875    CDp =  0.00265

 Side 1 forced transition at x/c =  0.1000   45
 Side 2 forced transition at x/c =  0.0500   42

   5   rms: 0.1647E-05   max: -.1454E-04   D at  160  2
       a =  0.000      CL =  0.2300
      Cm = -0.0008     CD =  0.01140   =>   CDf =  0.00875    CDp =  0.00265

.OPERv   c>  
.OPERv   c>  
 XFOIL   c>  
Errors:
