Output:

 ===================================================
  XFOIL Version 6.99
  Copyright (C) 2000   Mark Drela, Harold Youngren

  This software comes with ABSOLUTELY NO WARRANTY,
    subject to the GNU General Public License.

  Caveat computor
 ===================================================

 File  xfoil.def  not found

 Plain airfoil file

Enter airfoil name   s>  
 Number of input coordinate points: 154
 Counterclockwise ordering
 Max thickness =     0.107224  at x =   0.246
 Max camber    =     0.022516  at x =   0.356

  LE  x,y  =  -0.00000  -0.00000  |   Chord =   1.00000
  TE  x,y  =   1.00000   0.00000  |

 Current airfoil nodes set from buffer airfoil nodes ( 154 )

   QUIT    Exit program

  .OPER    Direct operating point(s)
  .MDES    Complex mapping design routine
  .QDES    Surface speed design routine
  .GDES    Geometry design routine

   SAVE f  Write airfoil to labeled coordinate file
   PSAV f  Write airfoil to plain coordinate file
   ISAV f  Write airfoil to ISES coordinate file
   MSAV f  Write airfoil to MSES coordinate file
   REVE    Reverse written-airfoil node ordering

   LOAD f  Read buffer airfoil from coordinate file
   NACA i  Set NACA 4,5-digit airfoil and buffer airfoil
   INTE    Set buffer airfoil by interpolating two airfoils
   NORM    Buffer airfoil normalization toggle
   XYCM rr Change CM reference location, currently  0.25000 0.00000

   BEND    Display structural properties of current airfoil

   PCOP    Set current-airfoil panel nodes directly from buffer airfoil points
   PANE    Set current-airfoil panel nodes ( 160 ) based on curvature
  .PPAR    Show/change paneling

  .PLOP    Plotting options

   WDEF f  Write  current-settings file
   RDEF f  Reread current-settings file
   NAME s  Specify new airfoil name
   NINC    Increment name version number

   Z       Zoom    | (available in all menus)
   U       Unzoom  | 

 XFOIL   c>  
.OPERi   c>  
.OPERi   c>  
Enter Reynolds number   r>  
 M  =    0.0000
 Re =1000000000

.OPERv   c>   Calculating unit vorticity distributions ...
 Calculating wake trajectory ...
 Calculating source influence matrix ...

 Solving BL system ...

 Initializing BL ...
    side            1  ...
    side            2  ...
 MRCHUE: Inverse mode at  32     Hk =  21.323
 MRCHUE: Inverse mode at  33     Hk =  10.554
 MRCHUE: Inverse mode at  34     Hk =   7.427
 MRCHUE: Inverse mode at  35     Hk =   5.548
 MRCHUE: Inverse mode at  36     Hk =   4.191
 MRCHUE: Inverse mode at  37     Hk =   3.132
 MRCHUE: Convergence failed at  38  side 2    Res =  0.1327E+00

 Side 1  free  transition at x/c =  0.0313   28
 Side 2  free  transition at x/c =  0.0163   32

   1   rms: 0.2856E+00   max: -.3074E+01   T at   32  2   RLX: 0.163
       a =  0.000      CL =  0.1183
      Cm = -0.0071     CD =  0.00424   =>   CDf =  0.00317    CDp =  0.00106

 TRCHEK2: N2 convergence failed.
 x:  0.03662  0.03809  0.03827  N:  6.469  9.000  9.145  Nx:1770.311   dN:-0.197E+02
 TRCHEK2: N2 convergence failed.
 x:  0.03662  0.03810  0.03827  N:  6.469  9.000  9.446  Nx:1759.334   dN: 0.192E+02
 TRCHEK2: N2 convergence failed.
 x:  0.03662  0.03809  0.03827  N:  6.469  9.000  9.143  Nx:1768.467   dN:-0.279E+02
 TRCHEK2: N2 convergence failed.
 x:  0.03662  0.03809  0.03827  N:  6.469  9.000  9.141  Nx:1765.749   dN:-0.432E+02
 TRCHEK2: N2 convergence failed.
 x:  0.03662  0.03810  0.03827  N:  6.469  9.000  9.140  Nx:1764.695   dN:-0.558E+02
 TRCHEK2: N2 convergence failed.
 x:  0.03662  0.03810  0.03827  N:  6.469  9.000  9.139  Nx:1763.311   dN:-0.736E+02
 TRCHEK2: N2 convergence failed.
 x:  0.03662  0.03810  0.03827  N:  6.469  9.000  9.138  Nx:1762.698   dN:-0.935E+02
 TRCHEK2: N2 convergence failed.
 x:  0.03662  0.03810  0.03827  N:  6.469  9.000  9.138  Nx:1762.214   dN:-0.119E+03
 TRCHEK2: N2 convergence failed.
 x:  0.03662  0.03810  0.03827  N:  6.469  9.000  9.138  Nx:1761.835   dN:-0.151E+03
 TRCHEK2: N2 convergence failed.
 x:  0.03662  0.03810  0.03827  N:  6.469  9.000  9.137  Nx:1761.542   dN:-0.193E+03
 TRCHEK2: N2 convergence failed.
 x:  0.03662  0.03810  0.03827  N:  6.469  9.000  9.136  Nx:1760.737   dN:-0.286E+03
 TRCHEK2: N2 convergence failed.
 x:  0.03662  0.03810  0.03827  N:  6.469  9.000  9.136  Nx:1760.582   dN:-0.368E+03
 TRCHEK2: N2 convergence failed.
 x:  0.03662  0.03810  0.03827  N:  6.469  9.000  9.136  Nx:1760.461   dN:-0.472E+03
 TRCHEK2: N2 convergence failed.
 x:  0.03662  0.03810  0.03827  N:  6.469  9.000  9.136  Nx:1760.367   dN:-0.600E+03
 TRCHEK2: N2 convergence failed.
 x:  0.03662  0.03810  0.03827  N:  6.469  9.000  9.136  Nx:1760.292   dN:-0.770E+03
 TRCHEK2: N2 convergence failed.
 x:  0.03662  0.03810  0.03827  N:  6.469  9.000  9.136  Nx:1760.233   dN:-0.964E+03
 TRCHEK2: N2 convergence failed.
 x:  0.03662  0.03810  0.03827  N:  6.469  9.000  9.136  Nx:1760.189   dN:-0.123E+04
 TRCHEK2: N2 convergence failed.
 x:  0.03662  0.03810  0.03827  N:  6.469  9.000  9.136  Nx:1760.153   dN:-0.158E+04
 TRCHEK2: N2 convergence failed.
 x:  0.03662  0.03810  0.03827  N:  6.469  9.000  9.136  Nx:1760.124   dN:-0.203E+04
 TRCHEK2: N2 convergence failed.
 x:  0.03662  0.03810  0.03827  N:  6.469  9.000  9.136  Nx:1760.101   dN:-0.260E+04
 TRCHEK2: N2 convergence failed.
 x:  0.03662  0.03810  0.03827  N:  6.469  9.000  9.136  Nx:1760.086   dN:-0.331E+04
 Side 1  free  transition at x/c =  0.0313   28
 TRCHEK2: N2 convergence failed.
 x:  0.03662  0.03810  0.03827  N:  6.469  9.000  9.136  Nx:1760.070   dN:-0.428E+04
 Side 2  free  transition at x/c =  0.0169   32

   2   rms: 0.2537E+00   max: -.2960E+01   T at   32  2   RLX: 0.169
       a =  0.000      CL =  0.1167
      Cm = -0.0076     CD =  0.00420   =>   CDf =  0.00317    CDp =  0.00102

 TRCHEK2: N2 convergence failed.
 x:  0.03661  0.03814  0.03827  N:  6.567  9.000  9.062  Nx:3605.083   dN:-0.146E+01
 TRCHEK2: N2 convergence failed.
 x:  0.03661  0.03814  0.03827  N:  6.567  9.000  9.062  Nx:3350.879   dN:-0.207E+01
 TRCHEK2: N2 convergence failed.
 x:  0.03661  0.03814  0.03827  N:  6.567  9.000  9.062  Nx:3124.393   dN:-0.284E+01
 TRCHEK2: N2 convergence failed.
 x:  0.03661  0.03823  0.03827  N:  6.567  9.000  9.000  Nx:2770.426   dN:-0.349E+01
 TRCHEK2: N2 convergence failed.
 x:  0.03661  0.03827  0.03827  N:  6.567  9.000 10.000  Nx:2493.369   dN: 0.169E+01
 TRCHEK2: N2 convergence failed.
 x:  0.03661  0.03805  0.03827  N:  6.567  9.000  9.205  Nx:3601.917   dN:-0.475E+01
 TRCHEK2: N2 convergence failed.
 x:  0.03661  0.03814  0.03827  N:  6.567  9.000  9.062  Nx:3142.277   dN:-0.532E+01
 MRCHDU: Convergence failed at  32  side 2    Res =  0.2543E+00
 MRCHDU: Convergence failed at  34  side 2    Res =  0.9259E+01
 Side 1  free  transition at x/c =  0.0313   28
 Side 2  free  transition at x/c =  0.0182   33

   3   rms: 0.1490E+00   max: -.1646E+01   D at   33  2   RLX: 0.304
       a =  0.000      CL =  0.1149
      Cm = -0.0081     CD =  0.00376   =>   CDf =  0.00327    CDp =  0.00048

 Side 1  free  transition at x/c =  0.0313   28
 Side 2  free  transition at x/c =  0.0180   33

   4   rms: 0.9409E-01   max: 0.4802E+00   D at   38  2   RLX: 0.634
       a =  0.000      CL =  0.1126
      Cm = -0.0088     CD =  0.00377   =>   CDf =  0.00328    CDp =  0.00049

 Side 1  free  transition at x/c =  0.0313   28
 Side 2  free  transition at x/c =  0.0173   33

   5   rms: 0.3213E-01   max: 0.1518E+00   D at   38  2
       a =  0.000      CL =  0.1111
      Cm = -0.0093     CD =  0.00378   =>   CDf =  0.00328    CDp =  0.00050

 Side 1  free  transition at x/c =  0.0313   28
 Side 2  free  transition at x/c =  0.0170   32

   6   rms: 0.5652E-04   max: -.1078E-02   C at   32  2
       a =  0.000      CL =  0.1111
      Cm = -0.0093     CD =  0.00378   =>   CDf =  0.00329    CDp =  0.00049

.OPERv   c>  
.OPERv   c>  
 XFOIL   c>  
Errors:
