Output:

 ===================================================
  XFOIL Version 6.99
  Copyright (C) 2000   Mark Drela, Harold Youngren

  This software comes with ABSOLUTELY NO WARRANTY,
    subject to the GNU General Public License.

  Caveat computor
 ===================================================

 File  xfoil.def  not found

 Plain airfoil file

Enter airfoil name   s>  
 Number of input coordinate points:  77
 Counterclockwise ordering
 Max thickness =     0.083659  at x =   0.196
 Max camber    =     0.009637  at x =   0.374

  LE  x,y  =  -0.00000  -0.00000  |   Chord =   1.00000
  TE  x,y  =   1.00000   0.00000  |

 Current airfoil nodes set from buffer airfoil nodes (  77 )

   QUIT    Exit program

  .OPER    Direct operating point(s)
  .MDES    Complex mapping design routine
  .QDES    Surface speed design routine
  .GDES    Geometry design routine

   SAVE f  Write airfoil to labeled coordinate file
   PSAV f  Write airfoil to plain coordinate file
   ISAV f  Write airfoil to ISES coordinate file
   MSAV f  Write airfoil to MSES coordinate file
   REVE    Reverse written-airfoil node ordering

   LOAD f  Read buffer airfoil from coordinate file
   NACA i  Set NACA 4,5-digit airfoil and buffer airfoil
   INTE    Set buffer airfoil by interpolating two airfoils
   NORM    Buffer airfoil normalization toggle
   XYCM rr Change CM reference location, currently  0.25000 0.00000

   BEND    Display structural properties of current airfoil

   PCOP    Set current-airfoil panel nodes directly from buffer airfoil points
   PANE    Set current-airfoil panel nodes ( 160 ) based on curvature
  .PPAR    Show/change paneling

  .PLOP    Plotting options

   WDEF f  Write  current-settings file
   RDEF f  Reread current-settings file
   NAME s  Specify new airfoil name
   NINC    Increment name version number

   Z       Zoom    | (available in all menus)
   U       Unzoom  | 

 XFOIL   c>  
.OPERi   c>  
.OPERi   c>  
Enter Reynolds number   r>  
 M  =    0.0000
 Re =    100000

.OPERv   c>   Calculating unit vorticity distributions ...
 Calculating wake trajectory ...
 Calculating source influence matrix ...

 Solving BL system ...

 Initializing BL ...
    side            1  ...
 MRCHUE: Inverse mode at  41     Hk =   4.801
 MRCHUE: Inverse mode at  42     Hk =   6.464
 MRCHUE: Inverse mode at  43     Hk =   7.982
 MRCHUE: Inverse mode at  44     Hk =   5.783
    side            2  ...
 MRCHUE: Inverse mode at  35     Hk =  13.223
 MRCHUE: Inverse mode at  37     Hk =   3.571
 MRCHUE: Inverse mode at  38     Hk =   2.757
 MRCHUE: Convergence failed at  39  side 2    Res =  0.1089E+00

 Side 1  free  transition at x/c =  0.9630   44
 Side 2  free  transition at x/c =  0.9758   35

   1   rms: 0.3530E+00   max: -.2331E+01   D at   37  2   RLX: 0.214
       a =  0.000      CL =  0.1100
      Cm = -0.0249     CD =  0.02732   =>   CDf =  0.00577    CDp =  0.02155

 Side 1  free  transition at x/c =  0.9552   44
 Side 2  free  transition at x/c =  0.9752   35

   2   rms: 0.3246E+00   max: -.2418E+01   D at   38  2   RLX: 0.207
       a =  0.000      CL =  0.1031
      Cm = -0.0245     CD =  0.02337   =>   CDf =  0.00577    CDp =  0.01759

 Side 1  free  transition at x/c =  0.9495   44
 Side 2  free  transition at x/c =  0.9747   35

   3   rms: 0.2987E+00   max: -.2515E+01   D at   38  2   RLX: 0.199
       a =  0.000      CL =  0.0978
      Cm = -0.0242     CD =  0.02039   =>   CDf =  0.00576    CDp =  0.01463

 Side 1  free  transition at x/c =  0.9452   44
 Side 2  free  transition at x/c =  0.9749   35

   4   rms: 0.2616E+00   max: -.2381E+01   D at   38  2   RLX: 0.210
       a =  0.000      CL =  0.0941
      Cm = -0.0240     CD =  0.01791   =>   CDf =  0.00574    CDp =  0.01217

 Side 1  free  transition at x/c =  0.9417   44
 Side 2  free  transition at x/c =  0.9756   35

   5   rms: 0.2113E+00   max: -.1980E+01   D at   38  2   RLX: 0.253
       a =  0.000      CL =  0.0923
      Cm = -0.0239     CD =  0.01579   =>   CDf =  0.00571    CDp =  0.01008

 Side 1  free  transition at x/c =  0.9384   44
 Side 2  free  transition at x/c =  0.9770   35

   6   rms: 0.1515E+00   max: -.1430E+01   D at   38  2   RLX: 0.350
       a =  0.000      CL =  0.0927
      Cm = -0.0240     CD =  0.01403   =>   CDf =  0.00568    CDp =  0.00835

 Side 1  free  transition at x/c =  0.9352   44
 Side 2  free  transition at x/c =  0.9792   35

   7   rms: 0.9572E-01   max: -.8514E+00   D at   38  2   RLX: 0.587
       a =  0.000      CL =  0.0963
      Cm = -0.0244     CD =  0.01243   =>   CDf =  0.00563    CDp =  0.00679

 Side 1  free  transition at x/c =  0.9316   44
 Side 2  free  transition at x/c =  0.9823   35

   8   rms: 0.3623E-01   max: -.3176E+00   D at   38  2
       a =  0.000      CL =  0.1014
      Cm = -0.0250     CD =  0.01179   =>   CDf =  0.00558    CDp =  0.00622

 Side 1  free  transition at x/c =  0.9292   44
 Side 2  free  transition at x/c =  0.9847   35

   9   rms: 0.6857E-03   max: -.3457E-02   D at   38  2
       a =  0.000      CL =  0.1018
      Cm = -0.0251     CD =  0.01187   =>   CDf =  0.00553    CDp =  0.00634

 Side 1  free  transition at x/c =  0.9292   44
 Side 2  free  transition at x/c =  0.9846   35

  10   rms: 0.2324E-05   max: -.5066E-05   U at   46  2
       a =  0.000      CL =  0.1018
      Cm = -0.0251     CD =  0.01187   =>   CDf =  0.00553    CDp =  0.00634

.OPERv   c>  
.OPERv   c>  
 XFOIL   c>  
Errors:
